<!-- generated on 2024-11-12 13:45:51 by Eclipse SUMO netconvert Version 1.20.0
<configuration xmlns:xsi="http://www.w3.org/2001/XMLSchema-instance" xsi:noNamespaceSchemaLocation="http://sumo.dlr.de/xsd/netconvertConfiguration.xsd">

    <input>
        <node-files value="/tmp/tmplfyf7kcd/DEU_AachenHeckstrasse-1_3115929_T-17428.nod.xml"/>
        <edge-files value="/tmp/tmplfyf7kcd/DEU_AachenHeckstrasse-1_3115929_T-17428.edg.xml"/>
        <connection-files value="/tmp/tmplfyf7kcd/DEU_AachenHeckstrasse-1_3115929_T-17428.con.xml"/>
        <tllogic-files value="/tmp/tmplfyf7kcd/DEU_AachenHeckstrasse-1_3115929_T-17428.tll.xml"/>
        <type-files value="/tmp/tmplfyf7kcd/DEU_AachenHeckstrasse-1_3115929_T-17428.typ.xml"/>
    </input>

    <output>
        <output-file value="/tmp/tmplfyf7kcd/DEU_AachenHeckstrasse-1_3115929_T-17428.net.xml"/>
    </output>

    <processing>
        <geometry.remove.keep-edges.explicit value="true"/>
        <geometry.remove.min-length value="0.0"/>
        <geometry.avoid-overlap value="true"/>
        <offset.disable-normalization value="true"/>
    </processing>

    <tls_building>
        <tls.guess-signals value="true"/>
        <tls.green.time value="50"/>
        <tls.yellow.time value="10"/>
        <tls.red.time value="50"/>
        <tls.allred.time value="50"/>
        <tls.left-green.time value="50"/>
        <tls.crossing-min.time value="50"/>
        <tls.crossing-clearance.time value="50"/>
        <tls.group-signals value="true"/>
    </tls_building>

    <junctions>
        <no-turnarounds value="true"/>
        <junctions.internal-link-detail value="20"/>
    </junctions>

    <random_number>
        <seed value="1234"/>
    </random_number>

</configuration>
--><net xmlns:xsi="http://www.w3.org/2001/XMLSchema-instance" version="1.20" junctionCornerDetail="5" junctionLinkDetail="20" limitTurnSpeed="5.50" xsi:noNamespaceSchemaLocation="http://sumo.dlr.de/xsd/net_file.xsd">

    <location netOffset="0.00,0.00" convBoundary="4.65,-75.81,88.98,2.24" origBoundary="3.57,-75.81,88.98,2.24" projParameter="!"/>

    <type id="highway.residential" priority="3" speed="13.89" disallow="pedestrian tram rail_urban rail rail_electric ship"/>
    <type id="highway.residential_priority_4" priority="4" speed="13.89" disallow="pedestrian tram rail_urban rail rail_electric ship"/>

    <edge id=":11_0" function="internal">
        <lane id=":11_0_0" index="0" disallow="pedestrian tram rail_urban rail rail_electric ship" speed="36.11" length="0.29" width="3.27" shape="60.83,-15.27 60.55,-15.35"/>
    </edge>
    <edge id=":12_0" function="internal">
        <lane id=":12_0_0" index="0" disallow="pedestrian tram rail_urban rail rail_electric ship" speed="36.11" length="2.87" width="3.06" shape="53.54,-17.41 50.81,-18.28"/>
    </edge>
    <edge id=":13_0" function="internal">
        <lane id=":13_0_0" index="0" disallow="pedestrian tram rail_urban rail rail_electric ship" speed="36.11" length="2.46" width="3.93" shape="50.56,-18.37 48.23,-19.15"/>
    </edge>
    <edge id=":14_0" function="internal">
        <lane id=":14_0_0" index="0" disallow="pedestrian tram rail_urban rail rail_electric ship" speed="36.11" length="2.22" width="2.83" shape="30.11,-21.86 31.89,-23.18"/>
        <lane id=":14_0_1" index="1" disallow="pedestrian tram rail_urban rail rail_electric ship" speed="36.11" length="2.14" width="2.74" shape="31.92,-19.78 33.64,-21.06"/>
    </edge>
    <edge id=":15_0" function="internal">
        <lane id=":15_0_0" index="0" disallow="pedestrian tram rail_urban rail rail_electric ship" speed="36.11" length="0.29" width="3.13" shape="30.38,-14.95 30.15,-14.77"/>
    </edge>
    <edge id=":16_0" function="internal">
        <lane id=":16_0_0" index="0" disallow="pedestrian tram rail_urban rail rail_electric ship" speed="36.11" length="2.85" width="3.19" shape="12.59,-1.61 10.36,0.16"/>
    </edge>
    <edge id=":18_0" function="internal">
        <lane id=":18_0_0" index="0" disallow="pedestrian tram rail_urban rail rail_electric ship" speed="36.11" length="3.03" width="2.83" shape="25.48,-18.41 27.91,-20.22"/>
        <lane id=":18_0_1" index="1" disallow="pedestrian tram rail_urban rail rail_electric ship" speed="36.11" length="3.04" width="2.79" shape="27.15,-16.20 29.58,-18.02"/>
    </edge>
    <edge id=":23_0" function="internal">
        <lane id=":23_0_0" index="0" disallow="pedestrian tram rail_urban rail rail_electric ship" speed="36.11" length="2.61" width="3.28" shape="69.99,-52.11 72.07,-53.68"/>
    </edge>
    <edge id=":24_0" function="internal">
        <lane id=":24_0_0" index="0" disallow="pedestrian tram rail_urban rail rail_electric ship" speed="36.11" length="2.19" width="2.86" shape="69.57,-44.47 67.81,-43.16"/>
    </edge>
    <edge id=":25_0" function="internal">
        <lane id=":25_0_0" index="0" disallow="pedestrian tram rail_urban rail rail_electric ship" speed="36.11" length="0.13" width="3.13" shape="62.58,-39.24 62.71,-39.26"/>
    </edge>
    <edge id=":26_0" function="internal">
        <lane id=":26_0_0" index="0" disallow="pedestrian tram rail_urban rail rail_electric ship" speed="36.11" length="2.52" width="3.81" shape="49.52,-22.27 51.91,-21.47"/>
    </edge>
    <edge id=":27_0" function="internal">
        <lane id=":27_0_0" index="0" disallow="pedestrian tram rail_urban rail rail_electric ship" speed="36.11" length="3.71" width="5.33" shape="63.23,-55.28 63.27,-55.55 63.31,-55.80 63.35,-56.02 63.38,-56.22 63.41,-56.41 63.44,-56.58 63.47,-56.74 63.51,-56.89 63.54,-57.04 63.58,-57.18 63.62,-57.32 63.67,-57.47 63.72,-57.62 63.79,-57.78 63.86,-57.95 63.94,-58.14 64.03,-58.35 64.13,-58.57 64.25,-58.82"/>
    </edge>
    <edge id=":28_0" function="internal">
        <lane id=":28_0_0" index="0" disallow="pedestrian tram rail_urban rail rail_electric ship" speed="36.11" length="2.93" width="5.13" shape="69.01,-66.64 70.58,-69.11"/>
    </edge>
    <edge id=":30_0" function="internal">
        <lane id=":30_0_0" index="0" disallow="pedestrian tram rail_urban rail rail_electric ship" speed="36.11" length="2.98" width="3.44" shape="55.14,-40.97 57.55,-42.73"/>
    </edge>
    <edge id=":31_0" function="internal">
        <lane id=":31_0_0" index="0" disallow="pedestrian tram rail_urban rail rail_electric ship" speed="36.11" length="2.98" width="3.05" shape="52.47,-38.95 54.84,-40.75"/>
    </edge>
    <edge id=":35_0" function="internal">
        <lane id=":35_0_0" index="0" disallow="pedestrian tram rail_urban rail rail_electric ship" speed="36.11" length="2.60" width="3.23" shape="72.23,-53.80 74.32,-55.34"/>
    </edge>
    <edge id=":36_0" function="internal">
        <lane id=":36_0_0" index="0" disallow="pedestrian tram rail_urban rail rail_electric ship" speed="36.11" length="2.98" width="3.06" shape="79.54,-59.13 81.93,-60.91"/>
    </edge>
    <edge id=":38_0" function="internal">
        <lane id=":38_0_0" index="0" disallow="pedestrian tram rail_urban rail rail_electric ship" speed="36.11" length="2.20" width="3.02" shape="71.50,-45.90 69.73,-44.59"/>
    </edge>
    <edge id=":44_0" function="internal">
        <lane id=":44_0_0" index="0" disallow="pedestrian tram rail_urban rail rail_electric ship" speed="10.83" length="14.24" width="3.13" shape="48.04,-19.21 42.03,-20.56 40.74,-20.66 38.78,-20.31 36.69,-19.56 34.54,-18.15"/>
    </edge>
    <edge id=":44_1" function="internal">
        <lane id=":44_1_0" index="0" disallow="pedestrian tram rail_urban rail rail_electric ship" speed="7.89" length="19.79" width="2.82" shape="48.04,-19.21 41.77,-22.16 41.30,-23.41 41.11,-25.01 41.07,-26.26 41.20,-27.31 41.90,-28.81 43.20,-30.61 45.85,-33.23"/>
    </edge>
    <edge id=":44_2" function="internal">
        <lane id=":44_2_0" index="0" disallow="pedestrian tram rail_urban rail rail_electric ship" speed="36.11" length="18.18" width="3.13" shape="49.04,-29.11 42.40,-24.06 40.23,-22.46 34.54,-18.15"/>
    </edge>
    <edge id=":44_3" function="internal">
        <lane id=":44_3_0" index="0" disallow="pedestrian tram rail_urban rail rail_electric ship" speed="3.88" length="5.67" width="2.82" shape="49.04,-29.11 45.57,-33.59"/>
    </edge>
    <edge id=":44_4" function="internal">
        <lane id=":44_4_0" index="0" disallow="pedestrian tram rail_urban rail rail_electric ship" speed="36.11" length="16.98" width="2.82" shape="32.05,-23.31 38.73,-28.41 45.56,-33.60"/>
    </edge>
    <edge id=":44_5" function="internal">
        <lane id=":44_5_0" index="0" disallow="pedestrian tram rail_urban rail rail_electric ship" speed="11.93" length="17.25" width="4.35" shape="33.80,-21.18 40.24,-25.21 41.56,-25.26 43.07,-24.96 49.33,-22.33"/>
    </edge>
    <edge id=":45_0" function="internal">
        <lane id=":45_0_0" index="0" disallow="pedestrian tram rail_urban rail rail_electric ship" speed="10.04" length="12.45" width="4.64" shape="62.54,-39.15 58.10,-35.06 56.74,-32.31 56.37,-28.99"/>
    </edge>
    <edge id=":45_1" function="internal">
        <lane id=":45_1_0" index="0" disallow="pedestrian tram rail_urban rail rail_electric ship" speed="36.11" length="13.69" width="3.02" shape="62.54,-39.15 51.55,-30.98"/>
    </edge>
    <edge id=":46_0" function="internal">
        <lane id=":46_0_0" index="0" disallow="pedestrian tram rail_urban rail rail_electric ship" speed="9.55" length="12.41" width="3.33" shape="56.73,-25.07 57.23,-23.66 58.33,-21.46 59.58,-20.06 60.52,-19.11 65.34,-17.04"/>
    </edge>
    <edge id=":46_1" function="internal">
        <lane id=":46_1_0" index="0" disallow="pedestrian tram rail_urban rail rail_electric ship" speed="36.11" length="13.89" width="3.33" shape="52.15,-21.39 65.34,-17.04"/>
    </edge>
    <edge id=":47_0" function="internal">
        <lane id=":47_0_0" index="0" disallow="pedestrian tram rail_urban rail rail_electric ship" speed="10.46" length="9.90" width="5.17" shape="58.82,-43.64 60.57,-45.46 61.56,-46.81 62.12,-48.31 62.74,-52.36"/>
    </edge>
    <edge id=":47_1" function="internal">
        <lane id=":47_1_0" index="0" disallow="pedestrian tram rail_urban rail rail_electric ship" speed="36.11" length="10.56" width="3.30" shape="58.82,-43.64 61.79,-45.96 61.79,-45.96 67.23,-50.03"/>
    </edge>
    <edge id=":9_0" function="internal">
        <lane id=":9_0_0" index="0" disallow="pedestrian tram rail_urban rail rail_electric ship" speed="36.11" length="2.99" width="2.85" shape="74.10,-14.17 76.95,-13.25"/>
    </edge>

    <edge id="101" from="42" to="18" priority="3" type="highway.residential" spreadType="center" length="27.17">
        <lane id="101_0" index="0" disallow="pedestrian tram rail_urban rail rail_electric ship" speed="36.11" length="27.30" width="3.15" customShape="1" shape="3.72,-1.93 7.81,-5.21 25.48,-18.41"/>
        <lane id="101_1" index="1" disallow="pedestrian tram rail_urban rail rail_electric ship" speed="36.11" length="27.17" width="2.89" customShape="1" shape="5.58,0.31 9.59,-3.01 27.15,-16.20"/>
    </edge>
    <edge id="102" from="18" to="14" priority="3" type="highway.residential" spreadType="center" length="2.74">
        <lane id="102_0" index="0" disallow="pedestrian tram rail_urban rail rail_electric ship" speed="36.11" length="2.74" width="2.83" customShape="1" shape="27.91,-20.22 30.11,-21.86"/>
        <lane id="102_1" index="1" disallow="pedestrian tram rail_urban rail rail_electric ship" speed="36.11" length="2.93" width="2.79" customShape="1" shape="29.58,-18.02 31.92,-19.78"/>
    </edge>
    <edge id="106" from="15" to="16" priority="3" type="highway.residential" spreadType="center" length="21.94">
        <lane id="106_0" index="0" disallow="pedestrian tram rail_urban rail rail_electric ship" speed="36.11" length="21.94" width="3.13" customShape="1" shape="30.15,-14.77 12.59,-1.61"/>
    </edge>
    <edge id="109" from="44" to="26" priority="3" type="highway.residential" spreadType="center" length="0.20">
        <lane id="109_0" index="0" disallow="pedestrian tram rail_urban rail rail_electric ship" speed="36.11" length="0.20" width="4.35" customShape="1" shape="49.33,-22.33 49.52,-22.27"/>
    </edge>
    <edge id="111" from="45" to="44" priority="3" type="highway.residential" spreadType="center" length="3.13">
        <lane id="111_0" index="0" disallow="pedestrian tram rail_urban rail rail_electric ship" speed="36.11" length="3.13" width="3.02" customShape="1" shape="51.55,-30.98 49.04,-29.11"/>
    </edge>
    <edge id="112" from="44" to="31" priority="3" type="highway.residential" spreadType="center" length="8.74">
        <lane id="112_0" index="0" disallow="pedestrian tram rail_urban rail rail_electric ship" speed="36.11" length="8.74" width="2.82" customShape="1" shape="45.57,-33.59 52.47,-38.95"/>
    </edge>
    <edge id="114" from="40" to="38" priority="3" type="highway.residential" spreadType="center" length="21.64">
        <lane id="114_0" index="0" disallow="pedestrian tram rail_urban rail rail_electric ship" speed="36.11" length="21.64" width="3.06" customShape="1" shape="88.98,-58.66 84.09,-55.16 71.50,-45.90"/>
    </edge>
    <edge id="115" from="38" to="24" priority="3" type="highway.residential" spreadType="center" length="0.20">
        <lane id="115_0" index="0" disallow="pedestrian tram rail_urban rail rail_electric ship" speed="36.11" length="0.20" width="3.02" customShape="1" shape="69.73,-44.59 69.57,-44.47"/>
    </edge>
    <edge id="117" from="25" to="45" priority="3" type="highway.residential" spreadType="center" length="0.20">
        <lane id="117_0" index="0" disallow="pedestrian tram rail_urban rail rail_electric ship" speed="36.11" length="0.20" width="3.13" customShape="1" shape="62.71,-39.26 62.54,-39.15"/>
    </edge>
    <edge id="118" from="45" to="46" priority="3" type="highway.residential" spreadType="center" length="3.95">
        <lane id="118_0" index="0" disallow="pedestrian tram rail_urban rail rail_electric ship" speed="36.11" length="3.95" width="4.64" customShape="1" shape="56.37,-28.99 56.38,-26.91 56.73,-25.07"/>
    </edge>
    <edge id="120" from="46" to="9" priority="3" type="highway.residential" spreadType="center" length="9.22">
        <lane id="120_0" index="0" disallow="pedestrian tram rail_urban rail rail_electric ship" speed="36.11" length="9.22" width="3.33" customShape="1" shape="65.34,-17.04 74.10,-14.17"/>
    </edge>
    <edge id="122" from="9" to="33" priority="3" type="highway.residential" spreadType="center" length="8.65">
        <lane id="122_0" index="0" disallow="pedestrian tram rail_urban rail rail_electric ship" speed="36.11" length="8.65" width="2.85" customShape="1" shape="76.95,-13.25 85.19,-10.61"/>
    </edge>
    <edge id="124" from="34" to="11" priority="3" type="highway.residential" spreadType="center" length="24.59">
        <lane id="124_0" index="0" disallow="pedestrian tram rail_urban rail rail_electric ship" speed="36.11" length="24.59" width="3.27" customShape="1" shape="84.32,-8.01 74.69,-11.11 60.83,-15.27"/>
    </edge>
    <edge id="125" from="11" to="12" priority="3" type="highway.residential" spreadType="center" length="7.31">
        <lane id="125_0" index="0" disallow="pedestrian tram rail_urban rail rail_electric ship" speed="36.11" length="7.31" width="3.27" customShape="1" shape="60.55,-15.35 53.54,-17.41"/>
    </edge>
    <edge id="126" from="26" to="46" priority="3" type="highway.residential" spreadType="center" length="0.25">
        <lane id="126_0" index="0" disallow="pedestrian tram rail_urban rail rail_electric ship" speed="36.11" length="0.25" width="3.81" customShape="1" shape="51.91,-21.47 52.15,-21.39"/>
    </edge>
    <edge id="127" from="12" to="13" priority="3" type="highway.residential" spreadType="center" length="0.27">
        <lane id="127_0" index="0" disallow="pedestrian tram rail_urban rail rail_electric ship" speed="36.11" length="0.27" width="3.06" customShape="1" shape="50.81,-18.28 50.56,-18.37"/>
    </edge>
    <edge id="128" from="13" to="44" priority="2" type="highway.residential" spreadType="center" length="0.20">
        <lane id="128_0" index="0" disallow="pedestrian tram rail_urban rail rail_electric ship" speed="36.11" length="0.20" width="3.93" customShape="1" shape="48.23,-19.15 48.04,-19.21"/>
    </edge>
    <edge id="130" from="14" to="44" priority="3" type="highway.residential" spreadType="center" length="0.20" shape="32.38,-21.83 41.67,-28.25">
        <lane id="130_0" index="0" disallow="pedestrian tram rail_urban rail rail_electric ship" speed="36.11" length="0.21" width="2.83" customShape="1" shape="31.89,-23.18 32.05,-23.31"/>
        <lane id="130_1" index="1" disallow="pedestrian tram rail_urban rail rail_electric ship" speed="36.11" length="0.20" width="2.74" customShape="1" shape="33.64,-21.06 33.80,-21.18"/>
    </edge>
    <edge id="133" from="44" to="15" priority="3" type="highway.residential" spreadType="center" length="5.25" shape="43.67,-24.46 30.27,-14.86">
        <lane id="133_0" index="0" disallow="pedestrian tram rail_urban rail rail_electric ship" speed="36.11" length="5.25" width="3.13" customShape="1" shape="34.54,-18.15 30.38,-14.95"/>
    </edge>
    <edge id="134" from="16" to="41" priority="3" type="highway.residential" spreadType="center" length="3.24">
        <lane id="134_0" index="0" disallow="pedestrian tram rail_urban rail rail_electric ship" speed="36.11" length="3.24" width="3.19" customShape="1" shape="10.36,0.16 7.87,2.24"/>
    </edge>
    <edge id="138" from="30" to="47" priority="4" type="highway.residential_priority_4" spreadType="center" length="1.56">
        <lane id="138_0" index="0" disallow="pedestrian tram rail_urban rail rail_electric ship" speed="36.11" length="1.56" width="3.44" customShape="1" shape="57.55,-42.73 58.82,-43.64"/>
    </edge>
    <edge id="140" from="47" to="23" priority="4" type="highway.residential_priority_4" spreadType="center" length="3.46">
        <lane id="140_0" index="0" disallow="pedestrian tram rail_urban rail rail_electric ship" speed="36.11" length="3.46" width="3.30" customShape="1" shape="67.23,-50.03 69.99,-52.11"/>
    </edge>
    <edge id="141" from="23" to="35" priority="4" type="highway.residential_priority_4" spreadType="center" length="0.20">
        <lane id="141_0" index="0" disallow="pedestrian tram rail_urban rail rail_electric ship" speed="36.11" length="0.20" width="3.28" customShape="1" shape="72.07,-53.68 72.23,-53.80"/>
    </edge>
    <edge id="142" from="24" to="25" priority="3" type="highway.residential" spreadType="center" length="6.54">
        <lane id="142_0" index="0" disallow="pedestrian tram rail_urban rail rail_electric ship" speed="36.11" length="6.54" width="2.86" customShape="1" shape="67.81,-43.16 62.58,-39.24"/>
    </edge>
    <edge id="144" from="27" to="28" priority="4" type="highway.residential_priority_4" spreadType="center" length="9.17">
        <lane id="144_0" index="0" disallow="pedestrian tram rail_urban rail rail_electric ship" speed="36.11" length="9.17" width="5.33" customShape="1" shape="64.25,-58.82 65.28,-61.01 69.01,-66.64"/>
    </edge>
    <edge id="145" from="47" to="27" priority="4" type="highway.residential_priority_4" spreadType="center" length="2.96">
        <lane id="145_0" index="0" disallow="pedestrian tram rail_urban rail rail_electric ship" speed="36.11" length="2.96" width="5.17" customShape="1" shape="62.74,-52.36 63.23,-55.28"/>
    </edge>
    <edge id="146" from="28" to="43" priority="4" type="highway.residential_priority_4" spreadType="center" length="7.84">
        <lane id="146_0" index="0" disallow="pedestrian tram rail_urban rail rail_electric ship" speed="36.11" length="7.84" width="5.13" customShape="1" shape="70.58,-69.11 74.65,-75.81"/>
    </edge>
    <edge id="148" from="31" to="30" priority="3" type="highway.residential" spreadType="center" length="0.37">
        <lane id="148_0" index="0" disallow="pedestrian tram rail_urban rail rail_electric ship" speed="36.11" length="0.37" width="3.05" customShape="1" shape="54.84,-40.75 55.14,-40.97"/>
    </edge>
    <edge id="153" from="35" to="36" priority="4" type="highway.residential_priority_4" spreadType="center" length="6.45">
        <lane id="153_0" index="0" disallow="pedestrian tram rail_urban rail rail_electric ship" speed="36.11" length="6.45" width="3.23" customShape="1" shape="74.32,-55.34 79.54,-59.13"/>
    </edge>
    <edge id="154" from="36" to="39" priority="4" type="highway.residential_priority_4" spreadType="center" length="4.48">
        <lane id="154_0" index="0" disallow="pedestrian tram rail_urban rail rail_electric ship" speed="36.11" length="4.48" width="3.06" customShape="1" shape="81.93,-60.91 85.51,-63.61"/>
    </edge>

    <junction id="11" type="priority" x="60.69" y="-15.31" incLanes="124_0" intLanes=":11_0_0" shape="60.36,-13.70 61.30,-16.83 61.01,-16.92 60.09,-13.78">
        <request index="0" response="0" foes="0" cont="0"/>
    </junction>
    <junction id="12" type="priority" x="52.16" y="-17.81" incLanes="125_0" intLanes=":12_0_0" shape="53.08,-15.83 54.00,-18.98 51.32,-19.73 50.31,-16.84">
        <request index="0" response="0" foes="0" cont="0"/>
    </junction>
    <junction id="13" type="priority" x="49.16" y="-18.86" incLanes="127_0" intLanes=":13_0_0" shape="50.05,-16.93 51.06,-19.82 50.04,-20.29 49.71,-20.51 49.38,-20.73 48.95,-20.95 48.35,-21.18 47.17,-17.42 48.23,-17.21 48.62,-17.19 49.00,-17.17 49.45,-17.10">
        <request index="0" response="0" foes="0" cont="0"/>
    </junction>
    <junction id="14" type="priority" x="32.38" y="-21.83" incLanes="102_0 102_1" intLanes=":14_0_0 :14_0_1" shape="35.55,-20.79 31.90,-24.96 29.18,-22.93 32.84,-18.72">
        <request index="0" response="00" foes="00" cont="0"/>
        <request index="1" response="00" foes="00" cont="0"/>
    </junction>
    <junction id="15" type="priority" x="30.27" y="-14.86" incLanes="133_0" intLanes=":15_0_0" shape="31.34,-13.71 29.43,-16.19 29.21,-16.03 31.09,-13.52">
        <request index="0" response="0" foes="0" cont="0"/>
    </junction>
    <junction id="16" type="priority" x="11.45" y="-0.76" incLanes="106_0" intLanes=":16_0_0" shape="13.53,-0.36 11.65,-2.87 9.33,-1.07 11.38,1.38">
        <request index="0" response="0" foes="0" cont="0"/>
    </junction>
    <junction id="18" type="priority" x="27.52" y="-18.21" incLanes="101_0 101_1" intLanes=":18_0_0 :18_0_1" shape="30.42,-16.91 27.06,-21.35 24.53,-19.67 28.02,-15.05">
        <request index="0" response="00" foes="00" cont="0"/>
        <request index="1" response="00" foes="00" cont="0"/>
    </junction>
    <junction id="23" type="priority" x="71.18" y="-53.01" incLanes="140_0" intLanes=":23_0_0" shape="73.37,-52.60 71.40,-55.22 68.99,-53.43 70.98,-50.79">
        <request index="0" response="0" foes="0" cont="0"/>
    </junction>
    <junction id="24" type="priority" x="69.00" y="-44.06" incLanes="115_0" intLanes=":24_0_0" shape="71.11,-43.73 69.31,-46.16 66.95,-44.30 68.66,-42.02">
        <request index="0" response="0" foes="0" cont="0"/>
    </junction>
    <junction id="25" type="priority" x="61.41" y="-38.36" incLanes="142_0" intLanes=":25_0_0" shape="63.44,-38.10 61.73,-40.38 59.31,-38.80 61.10,-36.24">
        <request index="0" response="0" foes="0" cont="0"/>
    </junction>
    <junction id="26" type="priority" x="50.51" y="-21.96" incLanes="109_0" intLanes=":26_0_0" shape="51.28,-19.68 52.53,-23.27 49.75,-24.47 48.46,-20.32">
        <request index="0" response="0" foes="0" cont="0"/>
    </junction>
    <junction id="27" type="priority_stop" x="63.58" y="-57.41" incLanes="145_0" intLanes=":27_0_0" shape="66.66,-57.69 61.84,-59.96 61.20,-58.45 61.04,-57.90 60.93,-57.33 60.83,-56.64 60.68,-55.71 65.78,-54.85 65.97,-55.94 66.07,-56.31 66.21,-56.68 66.39,-57.11">
        <request index="0" response="0" foes="0" cont="0"/>
    </junction>
    <junction id="28" type="priority" x="69.82" y="-67.86" incLanes="144_0" intLanes=":28_0_0" shape="72.77,-67.78 68.39,-70.44 66.79,-68.11 71.23,-65.17">
        <request index="0" response="0" foes="0" cont="0"/>
    </junction>
    <junction id="30" type="priority" x="56.33" y="-41.86" incLanes="148_0" intLanes=":30_0_0" shape="58.55,-41.33 56.54,-44.13 54.23,-42.19 56.05,-39.74">
        <request index="0" response="0" foes="0" cont="0"/>
    </junction>
    <junction id="31" type="priority" x="53.64" y="-39.86" incLanes="112_0" intLanes=":31_0_0" shape="55.75,-39.52 53.93,-41.97 51.60,-40.06 53.33,-37.83">
        <request index="0" response="0" foes="0" cont="0"/>
    </junction>
    <junction id="33" type="dead_end" x="85.19" y="-10.61" incLanes="122_0" intLanes="" shape="85.62,-11.96 84.76,-9.25"/>
    <junction id="34" type="dead_end" x="84.32" y="-8.01" incLanes="" intLanes="" shape="84.82,-9.57 83.82,-6.45"/>
    <junction id="35" type="priority" x="73.11" y="-54.46" incLanes="141_0" intLanes=":35_0_0" shape="75.27,-54.03 73.37,-56.64 70.93,-54.87 72.91,-52.25">
        <request index="0" response="0" foes="0" cont="0"/>
    </junction>
    <junction id="36" type="priority" x="80.74" y="-60.01" incLanes="153_0" intLanes=":36_0_0" shape="82.86,-59.69 81.01,-62.13 78.59,-60.44 80.49,-57.82">
        <request index="0" response="0" foes="0" cont="0"/>
    </junction>
    <junction id="38" type="priority" x="70.29" y="-45.01" incLanes="114_0" intLanes=":38_0_0" shape="72.41,-44.67 70.60,-47.13 68.19,-45.34 69.98,-42.90">
        <request index="0" response="0" foes="0" cont="0"/>
    </junction>
    <junction id="39" type="dead_end" x="85.51" y="-63.61" incLanes="154_0" intLanes="" shape="84.59,-64.83 86.43,-62.39"/>
    <junction id="40" type="dead_end" x="88.98" y="-58.66" incLanes="" intLanes="" shape="88.09,-59.90 89.87,-57.42"/>
    <junction id="41" type="dead_end" x="7.87" y="2.24" incLanes="134_0" intLanes="" shape="8.89,3.46 6.85,1.02"/>
    <junction id="42" type="dead_end" x="4.65" y="-0.81" incLanes="" intLanes="" shape="6.50,1.43 2.71,-3.14"/>
    <junction id="43" type="dead_end" x="74.65" y="-75.81" incLanes="146_0" intLanes="" shape="72.46,-77.14 76.84,-74.48"/>
    <junction id="44" type="priority" x="42.64" y="-25.64" incLanes="128_0 111_0 130_0 130_1" intLanes=":44_0_0 :44_1_0 :44_2_0 :44_3_0 :44_4_0 :44_5_0" shape="47.78,-17.23 50.54,-24.23 48.74,-25.18 48.45,-25.76 48.55,-26.41 49.06,-27.13 49.97,-27.92 44.71,-34.70 30.25,-23.72 35.49,-16.91 38.57,-18.26 40.49,-18.47 42.67,-18.37 45.10,-17.96" rightOfWay="edgePriority">
        <request index="0" response="111100" foes="111100" cont="0"/>
        <request index="1" response="111100" foes="111100" cont="0"/>
        <request index="2" response="000000" foes="000000" cont="0"/>
        <request index="3" response="000000" foes="000000" cont="0"/>
        <request index="4" response="000000" foes="000000" cont="0"/>
        <request index="5" response="000000" foes="000000" cont="0"/>
    </junction>
    <junction id="45" type="priority" x="55.89" y="-32.54" incLanes="117_0" intLanes=":45_0_0 :45_1_0" shape="54.05,-28.97 58.69,-29.01 65.94,-39.60 64.15,-42.17 50.65,-32.19 52.45,-29.77 53.33,-30.21 53.64,-30.16 53.86,-29.94 54.00,-29.55" rightOfWay="edgePriority">
        <request index="0" response="00" foes="00" cont="0"/>
        <request index="1" response="00" foes="00" cont="0"/>
    </junction>
    <junction id="46" type="priority" x="57.70" y="-21.24" incLanes="118_0 126_0" intLanes=":46_0_0 :46_1_0" shape="64.83,-15.45 65.86,-18.62 62.47,-20.24 61.19,-21.30 60.19,-22.54 59.46,-23.94 59.01,-25.51 54.45,-24.64 54.45,-23.51 54.24,-23.19 53.89,-23.03 53.40,-23.03 52.77,-23.19 51.52,-19.59" rightOfWay="edgePriority">
        <request index="0" response="10" foes="10" cont="0"/>
        <request index="1" response="00" foes="01" cont="0"/>
    </junction>
    <junction id="47" type="priority_stop" x="62.31" y="-47.52" incLanes="138_0" intLanes=":47_0_0 :47_1_0" shape="68.22,-48.71 66.24,-51.35 65.60,-51.01 65.40,-51.04 65.28,-51.21 65.24,-51.50 65.29,-51.93 60.19,-52.78 60.01,-49.53 59.99,-48.30 59.75,-47.21 59.09,-46.16 57.82,-45.04 59.82,-42.25" rightOfWay="edgePriority">
        <request index="0" response="00" foes="00" cont="0"/>
        <request index="1" response="00" foes="00" cont="0"/>
    </junction>
    <junction id="9" type="priority" x="75.52" y="-13.71" incLanes="120_0" intLanes=":9_0_0" shape="76.52,-11.90 77.39,-14.61 74.62,-15.76 73.58,-12.59">
        <request index="0" response="0" foes="0" cont="0"/>
    </junction>

    <connection from="101" to="102" fromLane="0" toLane="0" contPos="-4.00" via=":18_0_0" dir="s" state="M"/>
    <connection from="101" to="102" fromLane="1" toLane="1" contPos="-4.00" via=":18_0_1" dir="s" state="M"/>
    <connection from="102" to="130" fromLane="0" toLane="0" contPos="-4.00" via=":14_0_0" dir="s" state="M"/>
    <connection from="102" to="130" fromLane="1" toLane="1" contPos="-4.00" via=":14_0_1" dir="s" state="M"/>
    <connection from="106" to="134" fromLane="0" toLane="0" contPos="-4.00" via=":16_0_0" dir="s" state="M"/>
    <connection from="109" to="126" fromLane="0" toLane="0" contPos="-4.00" via=":26_0_0" dir="s" state="M"/>
    <connection from="111" to="133" fromLane="0" toLane="0" contPos="-4.00" shape="47.36,-27.86 42.40,-24.06 40.23,-22.46 35.39,-18.81" via=":44_2_0" dir="s" state="w"/>
    <connection from="111" to="112" fromLane="0" toLane="0" contPos="-4.00" shape="47.36,-27.86 46.24,-27.56 45.27,-27.81 44.18,-28.61 44.00,-29.56 44.30,-31.01 45.79,-32.91 48.56,-35.91" via=":44_3_0" dir="l" state="w"/>
    <connection from="112" to="148" fromLane="0" toLane="0" contPos="-4.00" via=":31_0_0" dir="s" state="M"/>
    <connection from="114" to="115" fromLane="0" toLane="0" contPos="-4.00" via=":38_0_0" dir="s" state="M"/>
    <connection from="115" to="142" fromLane="0" toLane="0" contPos="-4.00" via=":24_0_0" dir="s" state="M"/>
    <connection from="117" to="118" fromLane="0" toLane="0" contPos="-4.00" shape="59.32,-36.91 58.10,-35.06 56.74,-32.31 56.36,-29.41" via=":45_0_0" dir="r" state="M"/>